CoresoETL/UCT_Source/20221102_1230_FO3_NL1.uct
##C 2007.05.01
UCTE Export
2022_Week44_NL-2022_11_02 DACF 1400

----- NODE BLOCK -----
_________1_________2_________3_________4_________5_________6_________7_________8_________9________10________11________12________13
1234567890123456789012345678901234567890123456789012345678901234567890123456789012345678901234567890123456789012345678901234567890
Node    |Node Name   |S|T|Volt  |PLoad  |QLoad  |PGen   |QGen   |Pmin   |Pmax   |Qmin   |Qmax   |Sta  |Pprim  |Sks__  |X/R    |T|

##N
##ZNL
NWTR1531 WTR150       0 0              0       0       0       0 
NVAAR 3A VAAR15       0 0        6.49638 8.62255       0       0 
NHELD131 HELD15       0 0              0       0       0       0 
NSRBN 3A SBRN15       0 0        6.64137 -5.3192       0       0 
NTERW131 TERW15       0 0              0       0       0       0 
NBXT1532 BXT150       0 0              0       0       0       0 
NSNCM 3A SNC150       0 0        24.9855 46.0751       0       0 
NNRB153A NRB150       0 0              0       0       0       0 
NSWB153A SWB150       0 0              0       0       0       0 
NKNG153A KNG150       0 0        2.32402       0       0       0 
NWAP153A WAP150       0 0        -1.4700       0       0       0 
NSBRN132 SBRN15       0 0              0       0       0       0 
NAPL1531 APL150       0 0        10.4810       0       0       0 
NVAAR 3B VAAR15       0 0        6.38978 -7.5982       0       0 
NHELD130 HELD15       0 0              0       0       0       0 
NSRBN 3B SBRN15       0 0              0       0       0       0 
NTERW130 TERW15       0 0              0       0       0       0 
NNRB153B NRB150       0 0              0       0       0       0 
NSWB153B SWB150       0 0              0       0       0       0 
NSBRN13A SBRN15       0 0              0       0       0       0 
NHELD132 HELD15       0 0        -29.211 -3.6210       0       0 
NNRB153C NRB150       0 0              0       0       0       0 
NSWB153C SWB150       0 0              0       0       0       0 
NTERW132 TERW15       0 0              0       0       0       0 
NVENR131 VENR15       0 0              0       0       0       0 
NDKG3811 DKG380       0 0              0       0       0       0 
NDKG3810 DKG380       0 0              0       0       0       0 
NDKG3812 DKG380       0 0              0       0       0       0 
NTERW133 TERW15       0 0              0       0       0       0 
NVENR130 VENR15       0 0              0       0       0       0 
NBWK-512 Bleiswijk_38 0 0              0 94.7111       0       0 
NBWK-511 Bleiswijk_38 0 0              0 103.308       0       0 
NBWK-510 Bleiswijk_38 0 0              0 103.376       0       0 
NEEM3812 EEM380       0 0              0       0       0       0 
NMVL3810 MVL380       0 0              0       0       0       0 
NMVL3813 MVL380       0 0              0       0       0       0 
NEEM3816 EEM380       0 0              0       0       0       0 
NEEM222I EEM220       0 0              0       0       0       0 
NTERW134 TERW15       0 0        30.9931 0.63164       0       0 
NVENR132 VENR15       0 0        18.5922 5.23468       0       0 
NTERW135 TERW15       0 0              0       0       0       0 
NVENR133 VENR15       0 0              0       0       0       0 
NMDC381A MDC380       0 0              0       0       0       0 
NMSW153A MSW150       0 0              0       0       0       0 
NTNT153A TNT150       0 0              0       0 -3.3145 0.32315 
NBKZ1531 BKZ150       0 0        10.0836 -6.2726       0       0 
NNDP1531 NDP150       0 0        61.8456 20.3564       0       0 
NZVD153A ZVD150       0 0              0       0       0       0 
NAMLD 5A AMLD11       0 0        16.1203       0       0       0 
NAMLU 5A AMLU11       0 0              0       0       0       0 
NDVTB 5A DVTB11       0 0              0       0       0       0 
NENS1151 ENS110       0 0              0       0       0       0 
NEBG115A EBG110       0 0              0       0       0       0 
NEMZ1151 EMZ110       0 0              0       0       0       0 
NGNBS 5A GNBS11       0 0              0       0       0       0 
NGNBH 5A GNBH11       0 0              0       0       0       0 
NKZZ1152 KZZ110       0 0              0       0       0       0 
NMTWS 5A MTWS11       0 0        3.10800 0.88127       0       0 
NOMV115A OMV110       0 0              0       0       0       0 
NSD1105A SD110        0 0        0.06200 -2.7181       0       0 
NSTRO 5A STRO11       0 0              0       0       0       0 
NSTRP 5A STRP11       0 0              0       0       0       0 
NSTR115A STRT11       0 0        0.06100 2.84252       0       0 
NSW1105A SW110        0 0        10.7658 -1.9623       0       0 
NVDMZ 5A VDMZ11       0 0              0       0       0       0 
NWMD1151 WMD110       0 0              0       0       0       0 
NBXT153A BXT150       0 0        10.5178       0       0       0 
NDTO153A DTO150       0 0        -46.320       0       0       0 
NOBG153A OBG150       0 0        -2.5812 -3.4634       0       0 
NWTR153C WTR150       0 0              0       0       0       0 
NARI1531 ARI150       0 0              0       0       0       0 
NEEM2220 EEM220       0 0              0       0       0       0 
NEEM2224 EEM220       0 0              0       0       0       0 
NBWK3811 BWK380       0 0              0       0       0       0 
NZBK1531 ZBK150       0 0              0       0       0       0 
NAK1503A AK150        0 0        17.2338 -7.4269       0       0 
NAK1503B AK150        0 0        17.2315 -7.4241       0       0 
NTNT153B TNT150       0 0              0       0 -3.3145 0.32315 
NRK10 31 RK10         0 0              0       0       0       0       0 -66.500 1.00000 -1.0000 
NZVD153B ZVD150       0 0              0       0       0       0 
NDVTB 5B DVTB11       0 0        21.4949 1.35330       0       0 
NENS1150 ENS110       0 0              0       0       0       0 
NEBG115B EBG110       0 0        6.97207 0.89913       0       0 
NEMZ1150 EMZ110       0 0        14.3235 -2.1380       0       0 
NGNBS 5B GNBS11       0 0        15.6343 -1.3671       0       0 
NGNBH 5B GNBH11       0 0        32.1597 -3.4159       0       0 
NKZZ1151 KZZ110       0 0        -6.9996 -2.5895       0       0 
NOMV115B OMV110       0 0        18.1440 0.07878       0       0 
NSD1105B SD110        0 0        0.06200 -10.544       0       0 
NSW1105B SW110        0 0              0       0       0       0 
NVDMZ 5B VDMZ11       0 0        0.96200       0       0       0 
NWMD1150 WMD110       0 0              0       0       0       0 
NWTR153D WTR150       0 0              0       0       0       0 
NSTRK 5A STRK11       0 0        0.53600 1.81123       0       0 
NNW01 51 NW01         0 0              0       0 -129.12       0       0 -203.20 254.000 -254.00 
NWW01 51 WW01         0 2 105.87       0       0 -117.78 98.5994       0 -203.20 254.000 -254.00 
NZW01 51 ZW01         0 0              0       0 -62.900       0       0 -203.20 254.000 -254.00 
NISM1151 ISM110       0 0              0       0       0       0 
NAMLU 5B AMLU11       0 0        13.8155 1.20624       0       0 
NISM1150 ISM110       0 0        -4.4092 -2.1766       0       0 
NBBS153A BBS150       0 0        6.88939 -0.7540       0       0 
NBDL153A BDL150       0 0        8.22908 -31.721       0       0 
N_BEC15  Delfzijl-Far 0 0              0       0       0       0       0 -49.920 14.9700 -29.940 
N_BEC 3  Cuijk 150_10 0 0              0       0       0       0       0 -35.700 16.8000 -33.600 
NDZF1151 DZF110       0 0              0       0       0       0 
NBEEK 3C BEE150       0 0              0       0       0       0 
NBELF 3C BELF15       0 0        0.00871 -38.285       0       0 
N_BG102G Bergum 220_1 0 0              0       0       0       0       0 -40.000 15.0000 -30.000 
N_BG102S Bergum 220_2 0 0              0       0       0       0       0 -300.00 112.500 -225.00 
N_BG202G Bergum 220_1 0 0              0       0       0       0       0 -40.000 15.0000 -30.000 
N_BG202S Bergum 220_2 0 0              0       0       0       0       0 -300.00 112.500 -225.00 
NBKK-510 Breukelen Ko 0 0              0       0       0       0 
N_BS303  Borssele 150 0 2 151.97       0       0 -478.00 80.0817       0 -500.00 220.000 -430.00 
NBSL1531 BSL150       0 0              0       0       0       0 
NSKS1151 SKS110       0 0              0       0       0       0 
NSKS1150 SKS110       0 0              0       0       0       0 
NBUNSC3A Bunschoten 1 0 0              0       0       0       0 
NBUNSC31 Bunschoten 1 0 0        9.45982 0.54995       0       0 
NOZN3811 OZN380       0 0              0       0       0       0 
NBVW153A Beverwijk 38 0 0              0       0       0       0 
NBVW153B Beverwijk 38 0 0              0       0       0       0 
NBERGU21 Bergum 220_2 0 0              0       0       0       0 
NBERGU2A Bergum 220_2 0 0              0       0       0       0 
NBMR-510 Boxmeer 380_ 0 0              0       0       0       0 
NBD1503C BD150        0 0              0       0       0       0 
NBSL-510 Borssele 380 0 0              0       0       0       0 
NBSL-511 Borssele 380 0 0              0       0       0       0 
NBSL-512 Borssele 380 0 0              0       0       0       0 
NBVW-510 Beverwijk 38 0 0              0 100.393       0       0 
NBVW-511 Beverwijk 38 0 0              0 100.679       0       0 
N_CC-A1  Maasbracht 3 0 0              0       0       0       0       0 -622.00 220.000 -550.00 
NCCCT11  MBT380       0 0              0       0       0       0 
NCCCT21  MBT380       0 0              0       0       0       0 
NCCCT31  MBT380       0 0              0       0       0       0 
N_CCC43  Maasbracht 1 0 0              0       0       0       0       0 -600.60 180.000 -100.00 
NBSL1530 BSL150       0 0              0       0       0       0 
NCU1503A CU150        0 0        1.12000 9.39080       0       0 
NCST-512 Crayestein 3 0 0              0       0       0       0 
NCRAYE31 Crayestein 3 0 0              0       0       0       0 
NCRAYE32 Crayestein 3 0 0              0       0       0       0 
NCRAYE33 Crayestein 3 0 0              0       0       0       0 
NTRBK132 TRBK15       0 0              0       0       0       0 
NKP11051 KP110        0 0        10.7199 -1.7863       0       0 
NMP11051 MP110        0 0              0       0       0       0 
NOL11051 OL110        0 0              0       0       0       0 
NOL11050 OL110        0 0              0       0       0       0 
NOL11052 OL110        0 0        3.90399 -0.7305       0       0 
NMEE381I MEE380       0 0              0       0       0       0 
NULW1531 ULW150       0 0              0       0       0       0 
NKP11050 KP110        0 0              0       0       0       0 
NMP11050 MP110        0 0        35.2921 4.87265       0       0 
NMP11052 MP110        0 0              0       0       0       0 
NKP11052 KP110        0 0              0       0       0       0 
NMP11053 MP110        0 0              0       0       0       0 
NFLT-41  LLS380       0 0              0       0       0       0 
NGVT2 31 GVT2         0 0              0       0       0       0 
NGVT2 30 GVT2         0 0              0       0       0       0 
NSS15031 SS150        0 0              0       0 -121.40       0       0 -191.25 48.0000 -72.000 
NKIJ-510 Krimpen 380_ 0 0              0       0       0       0 
NLUTTE51 Luttelgeest  0 0              0       0       0       0 
NMSKD151 MSKD11       0 0        11.3089 0.49865       0       0 
NHSW2222 HSW220       0 0              0       0       0       0 
NOZN3810 OZN380       0 0              0       0       0       0 
NKP11053 KP110        0 0              0       0       0       0 
NMP11054 MP110        0 0              0       0       0       0 
NOL11053 OL110        0 0              0       0       0       0 
NKP11054 KP110        0 0              0       0       0       0 
NMP1105A MP110        0 0              0       0       0       0 
NSTRD151 STRD11       0 0              0       0       0       0 
NKP11055 KP110        0 0              0       0       0       0 
NMP1105B MP110        0 0              0       0       0       0 
NHDB115A HDB110       0 0              0       0       0       0 
NKP11056 KP110        0 0              0       0       0       0 
NMEE381J MEE380       0 0              0       0       0       0 
NULW1530 ULW150       0 0              0       0       0       0 
NMEE-510 Meeden 380_5 0 0              0       0       0       0 
NKP11057 KP110        0 0              0       0       0       0 
NMP11055 MP110        0 0              0       0       0       0 
NOL11054 OL110        0 0              0       0       0       0 
NKP11058 KP110        0 0              0       0       0       0 
NMP11056 MP110        0 0              0       0       0       0 
NOTL153A OTL150       0 0              0       0       0       0 
NKP11059 KP110        0 0              0       0       0       0 
NKP1105A KP110        0 0              0       0       0       0 
NDZW1151 DZW110       0 0              0       0       0       0 
NEOS3813 EOS380       0 0              0       0       0       0 
NEOS3811 EOS380       0 0              0       0       0       0 
N_DM333  Diemen 150 k 0 0              0       0       0       0       0 -265.62 86.0000 -164.40 
N_DM341  Diemen 380_2 0 2 400.44       0       0 -160.88 93.9753       0 -433.60 200.000 -400.00 
NDOD-511 Dodewaard 38 0 0              0 46.8500       0       0 
NDOD-510 Dodewaard 38 0 0              0       0       0       0 
NMEE3811 MEE380       0 0              0       0       0       0 
NMEE3813 MEE380       0 0              0       0       0       0 
NMEE3812 MEE380       0 0              0       0       0       0 
NDTC-510 Doetinchem 3 0 0              0 97.4053       0       0 
NDTC-511 Doetinchem 3 0 0              0 96.5456       0       0 
NDZS115A DZS110       0 0        3.24400 -1.5828       0       0 
NDDZ153A DDZ150       0 0              0       0       0       0 
NDDZ153B DDZ150       0 0              0       0       0       0 
NDIM-510 DIM050       0 0              0 103.322       0       0 
NDIM-511 DIM050       0 0              0       0       0       0 
NDIM-512 DIM050       0 0              0 54.2197       0       0 
NDIM-513 DIM050       0 0              0       0       0       0 
NDOD-512 Dodewaard 38 0 0              0 97.3944       0       0 
NAKU115A AKU110       0 0        6.00000       0       0       0 
NAKU115B AKU110       0 0              0       0       0       0 
N_EC-32  Eemshaven 22 0 0              0       0       0       0       0 -370.00 206.704 -143.14 
N_EC-42  Eemshaven 22 0 0              0       0       0       0       0 -370.00 206.704 -143.14 
N_EC-52  Eemshaven 22 0 0              0       0       0       0       0 -370.00 206.704 -143.14 
N_EC-61  Eemshaven 38 0 0              0       0       0       0       0 -370.00 206.704 -206.70 
N_EC-71  Eemshaven 38 0 0              0       0       0       0       0 -370.00 206.704 -206.70 
N_EC202G Robbenplaat  0 0              0       0       0       0       0 -114.75 130.000 -90.000 
N_EC202S Robbenplaat  0 0              0       0       0       0       0 -600.00 200.000 -138.50 
NEEM2221 EEM220       0 0              0       0       0       0 
N_EC301  Eemshaven Ou 0 2 389.38       0       0 -283.00 247.788       0 -900.00 500.000 -875.00 
N_EC311  Eemshaven Ou 0 0              0       0       0       0       0 -900.00 500.000 -875.00 
NEC3CA2  EEM220       0 0              0       0       0       0 
NEEM2223 EEM220       0 0              0       0       0       0 
NEC4CA2  EEM220       0 0              0       0       0       0 
NEEM2227 EEM220       0 0              0       0       0       0 
NEC5CA2  EEM220       0 0              0       0       0       0 
NEEM3811 EEM380       0 0              0       0       0       0 
NEEM3813 EEM380       0 0              0       0       0       0 
NEEM3817 EEM380       0 0              0       0       0       0 
NEDC3811 EDC380       0 0              0       0       0       0 
NEEM-510 Eemshaven 38 0 0              0       0       0       0 
NEEM-512 Eemshaven 38 0 0              0       0       0       0 
NEEM-511 Eemshaven 38 0 0              0       0       0       0 
NEOS3812 EOS380       0 0              0       0       0       0 
NEOS3810 EOS380       0 0              0       0       0       0 
NMVL381K MVL380       0 0              0       0       0       0 
NEEM2228 EEM220       0 0              0       0       0       0 
NEEM2225 EEM220       0 0              0       0       0       0 
NEHH2221 EHH220       0 0              0       0       0       0 
NEHH3811 EHH380       0 0              0       0       0       0 
NEHVN 3C EHVN15       0 0              0       0       0       0 
NEHVZ 3C EHVZ15       0 0              0       0       0       0 
NENS-513 Ens 380_50.0 0 0              0 73.1291       0       0 
NENS-514 Ens 380_50.0 0 0              0 73.1291       0       0 
NENS-515 Ens 380_50.0 0 0              0 73.1291       0       0 
NENS-510 Ens 380_50.0 0 0              0       0       0       0 
NENS-511 Ens 380_50.0 0 0              0 70.0489       0       0 
NENS-512 Ens 380_50.0 0 0              0       0       0       0 
NEEM3815 EEM380       0 0              0       0       0       0 
NEEM3818 EEM380       0 0              0       0       0       0 
NEEM3819 EEM380       0 0              0       0       0       0 
NVO11051 VO110        0 0              0       0       0       0 
N_ES1S3  Terneuzen 15 0 0              0       0       0       0       0 -118.15 54.0000 -108.00 
N_ES1G3  Terneuzen 15 0 2 152.84       0       0 -116.90 27.7266       0 -125.00 54.0000 -108.00 
NETN153F ETN150       0 0              0       0       0       0 
NEGEN_10 MVL380       0 0              0       0       0       0 
NEGEN_11 Maasvlakte 3 0 0              0       0       0       0       0 -450.00 200.000 -350.00 
NEGEN_12 Maasvlakte 3 0 0              0       0       0       0       0 -450.00 200.000 -350.00 
NEHA2220 EHA220       0 0              0       0 -32.995 1.47276 
NEHA2221 EHA220       0 0              0       0 -32.994 1.47396 
NEHV-510 Eindhoven 38 0 0              0       0       0       0 
NEHV-511 Eindhoven 38 0 0              0       0       0       0 
NEHV-512 Eindhoven 38 0 0              0       0       0       0 
NEHV-513 Eindhoven 38 0 0              0       0       0       0 
N_CR101  Maasvlakte 3 0 0              0       0       0       0       0 -800.00 265.000 -794.00 
NMV-E 1  MVL380       0 0              0       0       0       0 
N_FL-41  Lelystad 380 0 0              0       0 -7.4000       0 
N_FL-53  Lelystad 150 0 0              0       0       0       0       0 -460.00 200.000 -325.00 
NAP-GD35 GD150 SERIES 0 0              0       0       0       0 
NSMH153A Simonshaven  0 0              0       0       0       0 
NGT--511 Geertruidenb 0 0              0 79.2016       0       0 
NGT--510 Geertruidenb 0 0              0 79.2016       0       0 
N_HC625  Harculo 110_ 0 0              0       0       0       0       0 -88.000 33.0000 -66.000 
N_HC615  Harculo 110_ 0 0              0       0       0       0       0 -250.00 93.7500 -187.50 
NHELD 3C HELD15       0 0              0       0       0       0 
NHGLB152 HGLB11       0 0              0       0 -0.9999 0.00395 
NHGLA151 HGLA11       0 0              0       0       0       0 
NHGLA152 HGLA11       0 0              0       0       0       0 
NHGLB151 HGLB11       0 0              0       0       0       0 
NGNHU151 GNHU11       0 0              0       0       0       0 
NHPT153A HPT150       0 0        18.5554 0.80188       0       0 
NHSRW 3  HSR150       0 0              0       0       0       0 
NHSRZ 3  HSR150       0 0              0       0       0       0 
NHUSK 3A HUSK15       0 0        25.7480 -2.3077       0       0 
N_HW-93  Hemweg 150_2 0 2 152.33       0       0 -206.30 43.9509       0 -486.00 224.170 -428.50 
NHSR153A HSR150       0 0        10.6012 -0.0739       0       0 
NHSR153B HSR150       0 0        10.6012 -0.0739       0       0 
NHGL-510 Hengelo380_1 0 0              0       0       0       0 
NHGL-511 Hengelo380_1 0 0              0       0       0       0 
NHGL-512 Hengelo380_1 0 0              0       0       0       0 
NHESSE21 Hessenweg 22 0 0              0       0       0       0 
NHESSE22 Hessenweg 22 0 0              0       0       0       0 
NHESSE23 Hessenweg 22 0 0              0       0       0       0 
N_IJM_3  Velsen 150 k 0 2 143.68       0       0 -133.15 79.0000       0 -145.00 79.0000 -151.00 
N_LTG 5  LTG110       0 0        3.96829       0       0       0       0 -88.000 33.0000 -66.000 
NCST-510 Crayestein 3 0 0              0 99.4191       0       0 
NCST-511 Crayestein 3 0 0              0 100.093       0       0 
NGSP1531 GSP150       0 0              0       0       0       0 
NGSP1530 GSP150       0 0              0       0       0       0 
NLIMM 3C LIMM15       0 0              0       0       0       0 
NLLS-510 Lelystad 380 0 0              0       0       0       0 
NLOUWS2A Louwsmeer 22 0 0              0       0       0       0 
NULW1532 ULW150       0 0              0       0       0       0 
N_LWE63G Utrecht Lage 0 0              0       0       0       0       0 -161.28 112.000 -252.00 
N_LWE63S Utrecht Lage 0 0              0       0       0       0       0 -91.400 112.000 -252.00 
NLLS-511 Lelystad 380 0 0              0       0       0       0 
NLELYS1A Lelystad 380 0 0              0       0       0       0 
N_MD123  Moerdijk WKC 0 0              0       0       0       0       0 -59.040 31.6000 -59.000 
N_MD113  Moerdijk WKC 0 0              0       0       0       0       0 -177.92 93.7000 -175.00 
N_MD133  Moerdijk WKC 0 0              0       0       0       0       0 -59.040 31.6000 -59.000 
N_MD143  Moerdijk WKC 0 0              0       0       0       0       0 -59.040 31.6000 -59.000 
NMVL381L MVL380       0 0              0       0       0       0 
NMDK2_3  Moerdijk WKC 0 0              0       0       0       0       0 -456.00 200.000 -373.40 
NEEM3814 EEM380       0 0              0       0       0       0 
NEEM3810 EEM380       0 0              0       0       0       0 
NULW1533 ULW150       0 0              0       0       0       0 
N_MK123G Utrecht Lage 0 0              0       0       0       0       0 -277.40 140.160 -140.16 
N_MK123S Utrecht Lage 0 0              0       0       0       0       0 -99.275 70.0000 -70.000 
NMLBK131 MLBK15       0 0              0       0       0       0 
NSMH3811 SMH380       0 0              0       0       0       0 
N_MSEC1  Simonshaven  0 0              0       0       0       0       0 -466.00 200.000 -200.00 
NMSKJ15  MSKD11       0 0              0       0       0       0 
NMTWD 5  KWD110       0 0              0       0       0       0 
N_MV-11  Maasvlakte 3 0 0              0       0       0       0       0 -600.00 200.000 -200.00 
N_MV-21  Maasvlakte 3 0 0              0       0       0       0       0 -600.00 200.000 -200.00 
NMVL3811 MVL380       0 0              0       0       0       0 
NMVL381I MVL380       0 0              0       0       0       0 
NMVTR311 MVL380       0 0              0       0       0       0 
NMVTR310 MVL380       0 0              0       0       0       0 
N_MV-31  Maasvlakte 3 0 0              0       0       0       0       0 -1117.1 400.000 -600.00 
NMBT-510 Maasbracht 3 0 0              0       0       0       0 
NMBT-511 Maasbracht 3 0 0              0       0       0       0 
NMBT-512 Maasbracht 3 0 0              0       0       0       0 
NMBT-513 Maasbracht 3 0 0              0       0       0       0 
NMEEDE22 Meeden 220_2 0 0              0       0       0       0 
NMEEDE23 Meeden 220_2 0 0              0       0       0       0 
NMVL-510 Maasvlakte 3 0 0              0 106.155       0       0 
NMVL-511 Maasvlakte 3 0 0              0 55.0559       0       0 
NMVTR11  MVL380       0 0              0       0       0       0 
NMVTR21  MVL380       0 0              0       0       0       0 
NULW1534 ULW150       0 0        0.05026 0.29371       0       0 
NULW1535 ULW150       0 0        0.04933 0.29571       0       0 
N_SNBV5  Schoonebeek  0 0              0       0       0       0       0 -117.60 120.000 -120.00 
NNEDW 3C NEDW15       0 0              0       0       0       0 
NBSB222O BSB220       0 0        0.11303 52.4482 -166.58 -33.451 
NHZB222O HZB220       0 0        0.14913 0.02444       0       0 
NHZL222O HZL220       0 0        0.15777 97.8181       0       0 
NZKL222O ZKL220       0 0        0.20218 125.352       0       0 
NZKLO51  HZL033       0 0        0.13682 33.1787       0       0 
NZKL381O ZKL380       0 0              0       0       0       0 
NZKL0311 ZKL033       0 0              0       0       0       0 
NOMVZL5  OMD110       0 0              0       0       0       0 
NOPB153A OPB150       0 0              0       0       0       0 
NOS15031 OS150        0 0              0       0       0       0 
NOTD153F OTD150       0 0              0       0       0       0 
NOZN1530 Oostzaan 380 0 0              0       0       0       0 
NOZN1531 Oostzaan 380 0 0              0       0       0       0 
NOZN1533 Oostzaan 380 0 0              0       0       0       0 
NOUDEH21 Oudehaske 22 0 0              0       0       0       0 
NOUDEH22 Oudehaske 22 0 0              0       0       0       0 
NOUDEH2A Oudehaske 22 0 0              0       0       0       0 
NBT15031 BT150        0 0              0       0       0       0 
NBXT1530 BXT150       0 0              0       0       0       0 
NODR153A ODR150       0 0        13.2504 0.57883       0       0 
NODR153B ODR150       0 0        13.2504 0.57883       0       0 
NOZN-510 Oostzaan 380 0 0              0       0       0       0 
NOZN-511 Oostzaan 380 0 0              0       0       0       0 
NOZN-512 Oostzaan 380 0 0              0       0       0       0 
NBSB222P BSB220       0 0        0.11310 52.4789 -154.09 -33.437 
NHZB222P HZB220       0 0        0.14913 0.02444       0       0 
NHZL222P HZL220       0 0        0.15777 97.8181       0       0 
NZKL222P ZKL220       0 0        0.20240 125.490       0       0 
NZKLP51  HZL033       0 0        0.13682 33.1787       0       0 
NZKL381P ZKL380       0 0              0       0       0       0 
NZKL0312 ZKL033       0 0              0       0       0       0 
NLOUWS21 Louwsmeer 22 0 0        5.81300       0       0       0 
NVLN1531 VLN150       0 0              0       0 -42.241 1.58302 
NBLER 31 BLER15       0 0              0       0       0       0 
NSBRN13B SBRN15       0 0              0       0       0       0 
NBLER 32 BLER15       0 0              0       0       0       0 
NBLER 33 BLER15       0 0              0       0       0       0 
NBLER 34 BLER15       0 0              0       0       0       0 
NBLER 35 BLER15       0 0              0       0       0       0 
NBLER 36 BLER15       0 0        40.5280       0       0       0 
NAGP1531 AGP150       0 0        0.00001 2.31259       0       0       0 -164.80 206.000 -206.00 
NGENN 3B GENN15       0 0              0       0       0       0 
NODL153A ODL150       0 0        14.5241 9.63689       0       0 
NVLW153A VLW150       0 0              0       0 -17.870 -6.7052 
NODL153B ODL150       0 0              0       0 -7.9102 -3.1676 
NVLW153B VLW150       0 0        15.1327 21.4422       0       0 
NBMR381A BMR380       0 0              0       0       0       0 
NBGM222A BGM220       0 0              0       0       0       0 
NDZO222A DZO220       0 0        0.90000 0.34532       0       0 
NHSW222A HSW220       0 0              0       0       0       0 
NLSM222A LSM220       0 0              0       0       0       0 
NMEE222A MEE220       0 0              0       0 -17.030 0.21368 
NOPD222A OPD220       0 0        79.7460       0       0       0 
NOHK222A OHK220       0 0              0       0       0       0 
NRBB222A RBB220       0 0              0       0       0       0 
NVVL222A VVL220       0 0        16.1765 0.60546       0       0 
NZYV222A ZYV220       0 0              0       0       0       0 
NBVW381A BVW380       0 0              0       0       0       0 
NBWK381A BWK380       0 0              0       0       0       0 
NBKK381A BKK380       0 0              0       0       0       0 
NCST381A CST380       0 0              0       0       0       0 
NDIM381A DIM380       0 0              0       0       0       0 
NDOD381A DOD380       0 0              0       0       0       0 
NDKG381A DKG380       0 0              0       0       0       0 
NDTC381A DTC380       0 0              0       0       0       0 
NEEM381A EEM380       0 0              0       0       0       0 
NEOS381A EOS380       0 0              0       0       0       0 
NEHV381A EHV380       0 0              0       0       0       0 
NENS381A ENS380       0 0              0       0       0       0 
NGT3801A GT380        0 0              0       0       0       0 
NHGL381A HGL380       0 0              0       0       0       0 
NKIJ381A KIJ380       0 0              0       0       0       0 
NLLS381A LLS380       0 0              0       0       0       0 
NMBT381A MBT380       0 0              0       0       0       0 
NMVL381A MVL380       0 0              0       0       0       0 
NOZN381A OZN380       0 0              0       0       0       0 
NRLL381A RLL380       0 0              0       0       0       0 
NSMH381A SMH380       0 0              0       0       0       0 
NVHZ381A VHZ380       0 0              0       0       0       0 
NWTR381A WTR380       0 0              0       0       0       0 
NZL3801A ZL380        0 0              0       0       0       0 
NAB1503A AB150        0 0        1.71224       0       0       0 
NDDM153A DDM150       0 0              0 31.7720       0       0 
NDDZ5031 DDZ50        0 0        6.63219 -5.6775       0       0       0 -51.000 20.0000 -20.000 
NAP1503A AP150        0 0              0       0       0       0 
NBTL153A BTL150       0 0              0       0       0       0       0 -74.000 87.0000 -87.000 
NDLR153A DLR150       0 0              0       0       0       0 
NDTH1531 DTH150       0 0        11.2563       0       0       0 
NERP153A ERP150       0 0        23.8042 41.9947       0       0 
NEMR1531 EMR150       0 0        14.9500       0       0       0 
NGVT2 3A GVT2         0 0              0       0       0       0 
NLD1503A LD150        0 0        84.2463 -30.771       0       0 
NMSW1531 MSW150       0 0        -5.7021       0       0       0 
NOM1503A OM150        0 0        74.7821 -15.549       0       0       0 -48.000 5.00000 -5.0000 
NSS1503A SS150        0 0              0       0       0       0 
NTWG153A TWG150       0 0              0       0       0       0 
NVB1503A VB150        0 0              0       0       0       0 
NWTR153A WTR150       0 0              0       0       0       0 
NWL1503A WL150        0 0        11.9784 3.14873       0       0 
NYPB153A YPB150       0 0              0       0       0       0 
NZT1503A ZT150        0 0        26.2440 -13.277       0       0 
NALR153A ALR150       0 0              0       0       0       0 
NAPD153A APD150       0 0              0       0       0       0 
NBCO153A BCO150       0 0              0       0       0       0 
NDAL153A DAL150       0 0        9.61817 -3.1271       0       0 
NDOD153A DOD150       0 0        0.03950 0.13335       0       0 
NDTC153A DTC150       0 0              0       0       0       0 
NDNT153A DNT150       0 0              0       0       0       0 
NDNO153A DNO150       0 0              0       0       0       0 
NDRT153A DRT150       0 0              0       0       0       0 
NEDE153A EDE150       0 0              0       0       0       0 
NEBK113A EBK150       0 0        9.06644 0.29000       0       0 
NELT153A ELT150       0 0              0       0       0       0 
NHD1503A HD150        0 0              0       0       0       0 
NHTM153A HTM150       0 0              0       0       0       0 
NKBG1531 KBG150       0 0              0       0       0       0 
NKBT1531 KBT150       0 0              0       0       0       0 
NLGK153A LGK150       0 0              0       0       0       0 
NLLS153A LLS150       0 0              0       0       0       0 
NLC1503A LC150        0 0              0       0 -0.6237 1.26767 
NMKT153A MKT150       0 0              0       0       0       0 
NNM1503A NM150        0 0              0       0       0       0 
NPMP153A PMP150       0 0              0       0       0       0 
NPHP153A PHP150       0 0        13.7788 8.50089       0       0 
NRK1503A RK150        0 0        7.00000       0       0       0 
NTSD153A TSD150       0 0        0.04248 0.20601       0       0 
NTL1503A TL150        0 0        3.83900       0       0       0 
NUF1503A UF150        0 0              0       0       0       0 
NVSN153A VSN150       0 0              0       0       0       0 
NWTW153A WTW150       0 0              0       0       0       0 
NWHS153A WHS150       0 0              0       0       0       0 
NZBM153A ZBM150       0 0              0       0       0       0 
NZWO153A ZWO150       0 0              0       0 -66.245       0       0 -122.00 122.000 -122.00 
NZV1503A ZV150        0 0        1.07100       0       0       0 
NZBK153A ZBK150       0 0        -3.3464       0       0       0 
NZP1503A ZP150        0 0              0       0       0       0 
NAMV153A AMV150       0 0              0       0       0       0 
NBN15031 BN150        0 0        47.7554 3.47105       0       0 
NBZ1503A BZ150        0 0        31.4597 3.93949       0       0 
NHMM153A HMM150       0 0              0       0       0       0 
NHW1503A HW150        0 0        93.6439 31.6133       0       0 
NHK1503A HK150        0 0              0       0       0       0 
NNMR153A NMR150       0 0              0       0       0       0 
NNDK153A NDK150       0 0              0       0       0       0 
NVW1503A VW150        0 0              0       0       0       0 
NWPLD 3A WPLD15       0 0              0       0       0       0 
NWGM153A WGM150       0 0              0       0       0       0 
NZVD1531 ZVD150       0 0        44.7902 8.37192       0       0 
NBKL153A BKL150       0 0        6.42018 -4.8662       0       0 
NDB1503A DB150        0 0              0       0       0       0 
NNIWG 3A NIWG15       0 0              0       0       0       0 
NSOS153A SOS2         0 0              0       0       0       0 
NVNG153A VND1         0 0              0       0       0       0 
NVNW153A VND2         0 0              0       0       0       0 
NBGM1151 BGM110       0 0        5.79352 -5.3426       0       0 
NDK11051 DK110        0 0        1.27592 -13.401       0       0 
NDTN1151 DTN110       0 0        21.2120 0.89459       0       0 
NGRD1151 GRD110       0 0        2.21471 -1.1628       0       0 
NHRV1151 HRV110       0 0        6.58167 -0.7676       0       0 
NHBY1151 HBY110       0 0        -37.594 -12.067       0       0 
NLW11051 LW110        0 0        9.65985 -8.2400       0       0 
NLMR1151 LMR110       0 0        5.46650 -6.3340       0       0 
NLSM1151 LSM110       0 0              0       0       0       0 
NMNZL151 MNZL11       0 0        -21.043 4.18122       0       0 
NOWD1151 OWD110       0 0        -8.9608 -1.4304       0       0 
NOHK1151 OHK110       0 0        15.2954 109.215       0       0 
NRWD1151 RWD110       0 0        -0.4271 -5.1110       0       0 
NSKS1152 SKS110       0 0        9.96114 -4.2010       0       0 
NSK11051 SK110        0 0        8.73024 -2.4329       0       0 
NWV11051 WV110        0 0        0.05423 0.07949       0       0 
NAMLM 5A AMLM11       0 0        19.5108 3.48177       0       0 
NAMLT 5A AMLT11       0 0              0       0       0       0 
NBGMR 5A BGMR11       0 0        5.09815       0       0       0 
NBL1105A BL110        0 0        -0.8267 -13.869       0       0 
NCVD115A CVD110       0 0              0       0       0       0 
NDDV115A DDV110       0 0        2.78331 -3.0683       0       0 
NDZW115A DZW110       0 0              0       0       0       0 
NDVTP 5A DVTP11       0 0        14.5137 -2.1168       0       0 
NEHM1151 EHM110       0 0              0       0       0       0 
NEMW115A EMW110       0 0        8.16623       0       0       0 
NESDM 5A ESDM11       0 0        15.0464 3.42560       0       0 
NESDH 5A ESDH11       0 0        30.3133 8.80944       0       0 
NESDW 5A ESDW11       0 0              0       0       0       0 
NESDV 5A ESDV11       0 0              0       0       0       0 
NGLTK 5A GLTK11       0 0              0       0       0       0 
NGO1105A GO110        0 0              0       0       0       0 
NGK1105A GK110        0 0        5.83700 -2.6084       0       0 
NGNHU 5A GNHU11       0 0              0       0       0       0 
NGNHK 5A GNHK11       0 0              0       0       0       0 
NHBG115A HBG110       0 0        13.6594 2.95470       0       0 
NHCL115A HCL110       0 0              0       0       0       0 
NHDB1151 HDB110       0 0        12.4744 5.38669       0       0 
NHGLB 5A HGLB11       0 0        11.9416 1.42813       0       0 
NHGLO 5A HGLO11       0 0              0       0       0       0 
NHGLW 5A HGLW11       0 0        17.6552 -7.4364       0       0 
NHGV115A HGV110       0 0        8.68982 -6.0751       0       0 
NKP1105B KP110        0 0              0       0       0       0 
NKWD115A KWD110       0 0              0       0       0       0 
NLS1105A LS110        0 0        -0.9186 -2.4037       0       0 
NMAK115A MAK110       0 0        10.5637 -1.3944       0       0 
NMEE115A MEE110       0 0              0       0 -49.600       0       0 -150.00 187.500 -187.50 
NMPL115A MP110        0 0              0       0       0       0 
NMSK115A MSKZ11       0 0        -19.006       0       0       0 
NNVD115A NVD110       0 0        9.13993 4.84267       0       0 
NNO1105A NO110        0 0        34.6080 4.21100       0       0 
NODZ115A ODZ110       0 0        20.1078 -6.6587       0       0 
NOL1105A OL110        0 0              0       0       0       0 
NOMD115A OMD110       0 0        1.65345 3.41894       0       0 
NRT1105A RT110        0 0        12.8786       0       0       0 
NRS1105A RS110        0 0        9.26853 -1.2041       0       0 
NSKN115A SKN110       0 0        -50.495 1.07037       0       0 
NTBG115A TBG110       0 0              0       0       0       0 
NVDM115A VDM110       0 0        -38.544 3.70792       0       0 
NVO1105A VO110        0 0        -3.7662 2.90998       0       0 
NVVL115A VVL110       0 0              0       0       0       0 
NVLH115A VLH110       0 0        1.80043 -6.1834       0       0 
NNOPV 5A NOPV11       0 0        0.71374 -0.8345       0       0 
NVH1105A VH110        0 0        -1.4881 4.16920       0       0 
N_GAVI5  Wijster GAVI 0 0              0       0 -33.936       0       0 -54.000 67.5000 -67.500 
NWS1105A WS110        0 0        3.32528 1.77621       0       0 
NWSMR 5A WSMR11       0 0        7.25683 -5.9156       0       0 
NZYV115A ZYV110       0 0        3.61004 -2.5967       0       0 
NZS1105A ZS110        0 0        19.3730 -8.9489       0       0 
NZLF115A ZLF110       0 0        24.8661 -7.8020       0       0 
NZLH115A ZLH110       0 0        -4.1704 -1.0505       0       0 
NZLW115A ZLW110       0 0        29.9275 -4.2770       0       0 
NURM153A BEE150       0 0              0       0       0       0 
NBSDL 3A BSDL15       0 0              0       0       0       0 
NBELF 3A BELF15       0 0              0       0       0       0 
NBOEK 3A BOEK15       0 0              0       0       0       0 
NBORN 3A BORN15       0 0              0       0       0       0 
NBMR153A BMR150       0 0              0       0       0       0 
NCLF153A CLF150       0 0              0       0       0       0 
NGRTH 3A GRTH15       0 0        0.00403 -22.779       0       0 
NHELD 3A HELD15       0 0              0       0       0       0 
NHRST 3A HRST15       0 0              0       0       0       0 
NLIMM 3A LIMM15       0 0              0       0       0       0 
NLUTT 3A LUTT15       0 0              0       0       0       0 
NMRUM 3A MRUM15       0 0              0       0       0       0 
NTERW 3A TERW15       0 0              0       0       0       0 
NHTN153A HTN150       0 0        57.3342 -124.83       0       0 
NBOZ153A BOZ150       0 0        15.4690 19.8173       0       0 
NBD1503A BD150        0 0              0       0       0       0 
NERD153A ERD150       0 0              0       0       0       0 
NEHVN 3A EHVN15       0 0        50.6784 2.66014       0       0 
NEHVO 3A EHVO15       0 0        68.7010 11.6948       0       0 
NEHVW 3A EHVW15       0 0              0       0       0       0 
NEHVZ 3A EHVZ15       0 0              0       0       0       0 
NGT1503A GT150        0 0        -0.8084 -5.4066       0       0 
NHMO153A HMO150       0 0              0       0       0       0 
NHMZ153A HMZ150       0 0              0       0       0       0 
NMZ1503A MZ150        0 0              0 -120.14       0       0 
NMDK153A MDK150       0 0              0       0       0       0 
NWKCM 3B MDKW15       0 0              0       0       0       0 
NOSS153A OS150        0 0              0       0       0       0 
NPCH153A PCH150       0 0              0       0       0       0 
NRSD153A RSD150       0 0              0       0       0       0 
NRSB153A RSB150       0 0              0       0       0       0 
NTBN153A TBN150       0 0        52.6993 7.47376       0       0 
NTBW153A TBW150       0 0              0       0       0       0 
NTBZ153A TBZ150       0 0        15.6711 4.39863       0       0 
NWDT153A WDT150       0 0        34.9706 -0.5398       0       0 
NBSL153A BSL150       0 0        -33.308       0       0       0 
NMDB153A MDB150       0 0              0       0       0       0 
NRLL153A RLL150       0 0        -8.1500 -3.2357       0       0 
NTNZ153A TNZ150       0 0              0       0       0 -0.0840 
NVSG153A VSG150       0 0              0       0       0       0 
NHST153A VLO150       0 0        -8.8200       0       0       0 
NWDO153A WDO150       0 0        18.5299 -9.3409       0       0 
NWEW222A WEW220       0 0        -129.85 -52.269       0       0 
NBSL381A BSL380       0 0              0       0       0       0 
NCFE381C CFE380       0 0              0       0       0       0 
NHZL381A HZL380       0 0              0       0       0       0 
NMEE381A MEE380       0 0              0       0       0       0 
NAPL153A APL150       0 0        5.55653 -5.5987       0       0 
NOTL153G OTL150       0 0              0       0       0       0 
NVLN153A VLN150       0 0        130.541       0       0       0 
NWWD153B WWD150       0 0        32.7017 -8.4725       0       0 
NWYW153A WYW150       0 0        0.07597 0.34411       0       0 
NGVL153A GVL150       0 0              0       0       0       0 
NLTK1152 LTK110       0 0        -5.8744 0.09903       0       0 
NGSP153A GSP150       0 0              0       0       0       0 
NAPL153B APL150       0 0              0       0       0       0 
NWEW222C WEW220       0 0              0       0       0       0 
NBSL381C BSL380       0 0              0       0       0       0 
NCFE381A CFE380       0 0              0       0       0       0 
NHZL381B HZL380       0 0              0       0       0       0 
NMEE381C MEE380       0 0              0       0       0       0 
NDIM153A DIM150       0 0              0       0       0       0 
NOTL153D OTL150       0 0        -36.997 -21.378 -0.0912 -2.9770 
NVLN153F VLN150       0 0        51.6090       0       0       0 
NWWD153A WWD150       0 0        45.3524       0       0       0 
NWYW153C WYW150       0 0        74.7916 -7.0730       0       0 
NGVL1531 GVL150       0 0              0       0       0       0 
NGSP1532 GSP150       0 0              0       0       0       0 
NDIM153D DIM150       0 0              0       0       0       0 
NOTL153H OTL150       0 0              0       0       0       0 
NGVL1530 GVL150       0 0              0       0       0       0 
NGSP1533 GSP150       0 0        -3.6927 -25.896       0       0 
NDIM153F DIM150       0 0              0       0       0       0 
NVLN1530 VLN150       0 0              0       0       0       0 
NVLN1532 VLN150       0 0        82.0569 0.79319       0       0 
NVLN153C VLN150       0 0        36.4300       0       0       0 
NVLN1533 VLN150       0 0              0       0       0       0 
NVLN1534 VLN150       0 0              0       0       0       0 
NMBT153D MBT150       0 0              0       0       0       0 
NMBT153A MBT150       0 0              0       0       0       0 
NEEM222A EEM220       0 0              0       0       0       0 
NENS222A ENS220       0 0              0       0       0       0 
NBGM222B BGM220       0 0              0       0       0       0 
NDZO222B DZO220       0 0              0       0       0       0 
NHSW222B HSW220       0 0              0       0       0       0 
NLSM222B LSM220       0 0              0       0       0       0 
NMEE222B MEE220       0 0              0       0 -35.380 -0.8534 
NOPD222B OPD220       0 0        24.6130       0       0       0 
NOHK222B OHK220       0 0              0       0       0       0 
NRBB222B RBB220       0 0              0       0       0       0 
NVVL222B VVL220       0 0              0       0       0       0 
NZYV222B ZYV220       0 0              0       0       0       0 
NBVW381B BVW380       0 0              0       0       0       0 
NBWK381B BWK380       0 0              0       0       0       0 
NCST381B CST380       0 0              0       0       0       0 
NDIM381B DIM380       0 0              0       0       0       0 
NDKG381B DKG380       0 0              0       0       0       0 
NDTC381B DTC380       0 0              0       0       0       0 
NEEM381B EEM380       0 0              0       0       0       0 
NEOS381B EOS380       0 0              0       0       0       0 
NEHV381B EHV380       0 0              0       0       0       0 
NENS381B ENS380       0 0              0       0       0       0 
NGT3801B GT380        0 0              0       0       0       0 
NHGL381B HGL380       0 0              0       0       0       0 
NKIJ381B KIJ380       0 0              0       0       0       0 
NLLS381B LLS380       0 0              0       0       0       0 
NMBT381B MBT380       0 0              0       0       0       0 
NMVL381B MVL380       0 0              0       0       0       0 
NOZN381B OZN380       0 0              0       0       0       0 
NRLL381B RLL380       0 0              0       0       0       0 
NSMH381B SMH380       0 0              0       0       0       0 
NVHZ381B VHZ380       0 0              0       0       0       0 
NWTR381B WTR380       0 0              0       0       0       0 
NZL3801B ZL380        0 0              0       0       0       0 
NAB1503B AB150        0 0        21.4582 -15.167       0       0 
NDDM153B DDM150       0 0        53.9853 18.9098       0       0 
NAP1503B AP150        0 0        26.4617 -27.616       0       0 
NBTL153B BTL150       0 0        159.568 49.0742       0       0 
NDLR153B DLR150       0 0        9.58269 6.26412       0       0 
NERP153B ERP150       0 0              0       0       0       0 
NGVT2 3B GVT2         0 0              0       0       0       0 
NMDH1531 MDH150       0 0        -244.80       0       0       0 
NOM1503B OM150        0 0              0       0       0       0 
NSS1503B SS150        0 0        42.8676 -15.575       0       0 
NTWG153B TWG150       0 0        56.7502       0       0       0 
NVB1503B VB150        0 0        91.5738 3.90579       0       0 
NWTR153B WTR150       0 0              0       0       0       0 
NWL1503B WL150        0 0        0.06943 -111.03       0       0 
NYPB1531 YPB150       0 0        23.9751 -9.2506       0       0 
NZT1503B ZT150        0 0              0       0       0       0 
NALR153B ALR150       0 0        26.7483 15.6252       0       0 
NAPD153B APD150       0 0        45.2394 -9.0860       0       0 
NBCO153B BCO150       0 0        -5.4665 -4.3558       0       0 
NDAL153B DAL150       0 0              0       0       0       0 
NDTC153B DTC150       0 0        40.6943 11.4157       0       0 
NDNT153B DNT150       0 0        -53.751 -6.1574       0       0 
NDRT153B DRT150       0 0        3.30783 1.25460       0       0 
NEDE153B EDE150       0 0        33.6809 -6.3698       0       0 
NELT153B ELT150       0 0        19.6293 -5.4507       0       0 
NHD1503B HD150        0 0        63.4081 -15.403       0       0 
NHTM153B HTM150       0 0        4.79502 -5.4841       0       0 
NKBG1530 KBG150       0 0        42.7280 -7.7364       0       0 
NLGK153B LGK150       0 0              0       0       0       0 
NLLS153B LLS150       0 0        -5.9258 1.86879 -28.528       0       0 -9999.0 187.500 -187.50 
NLC1503B LC150        0 0              0       0 -0.6834 1.27843 
NMKT153B MKT150       0 0        0.21862       0       0       0 
NNM1503B NM150        0 0        34.2752 -0.8932       0       0 
NPMP153B PMP150       0 0        -7.4562 -4.8363       0       0 
NPHP153B PHP150       0 0              0       0       0       0 
NRK1503B RK150        0 0        11.4713 25.5104       0       0 
NTSD153B TSD150       0 0        22.8714 7.75209       0       0 
NTL1503B TL150        0 0        3.25639 -1.4291       0       0 
NUF1503B UF150        0 0        -11.754       0       0       0 
NVSN153B VSN150       0 0        11.7607 -0.1116       0       0 
NWTW153B WTW150       0 0        14.8315 -1.3169       0       0 
NWHS153B WHS150       0 0        3.15810 -7.9978       0       0 
NZBM153B ZBM150       0 0        20.8150 -2.5301       0       0 
NZWO153B ZWO150       0 0        -36.098       0 -186.64       0       0 -320.00 250.000 -250.00 
NZV1503B ZV150        0 0        5.43068 -1.0256       0       0 
NZP1503B ZP150        0 0        5.97816 -12.474       0       0 
NAMV153B AMV150       0 0        97.2360 -30.072       0       0 
NBZ1503B BZ150        0 0              0       0       0       0 
NDWL1531 DWL150       0 0        -13.300       0       0       0 
NHMM153B HMM150       0 0        125.614 -58.168       0       0 
NHK1503B HK150        0 0        97.8073 17.8489       0       0 
NMDM1531 MDM150       0 0        -240.38 161.586       0       0 
NNMR153B NMR150       0 0        73.2278 -31.080       0       0 
NNDK153B NDK150       0 0              0       0       0       0 
NVW1503B VW150        0 0        20.4523 -1.3088       0       0 
NWPLD 3B WPLD15       0 0        38.1057 0.28734       0       0 
NWGM153B WGM150       0 0        36.9033 14.5054       0       0 
NGVL153B GVL150       0 0        68.9757 -18.830       0       0 
NBKL153B BKL150       0 0        6.41615 -4.8598       0       0 
NBKK153B BKK150       0 0              0       0       0       0 
NDB1503B DB150        0 0        27.5392 -14.684       0       0 
NNIWG 3B NIWG15       0 0        28.2649 -2.0400       0       0 
NSOS153B SOS2         0 0        62.5832       0       0       0 
NVNG153B VND1         0 0        9.99421 -2.2280       0       0 
NVNW153B VND2         0 0        8.58878 0.05745       0       0 
NBGM1150 BGM110       0 0              0       0       0       0 
NDTN1150 DTN110       0 0              0       0       0       0 
NGRD1150 GRD110       0 0              0       0       0       0 
NHRV1150 HRV110       0 0              0       0       0       0 
NLW11050 LW110        0 0              0       0       0       0 
NLMR1150 LMR110       0 0              0       0       0       0 
NLSM1150 LSM110       0 0              0       0       0       0 
NOWD1150 OWD110       0 0              0       0       0       0 
NOHK1150 OHK110       0 0              0       0       0       0 
NSKS115A SKS110       0 0              0       0       0       0 
NSK11050 SK110        0 0              0       0       0       0 
NWV11052 WV110        0 0              0       0       0       0 
NAMLM 5B AMLM11       0 0              0       0       0       0 
NAMLT 5B AMLT11       0 0              0       0       0       0 
NBGMR 5B BGMR11       0 0              0       0       0       0 
NBL1105B BL110        0 0              0       0       0       0 
NCVD115B CVD110       0 0        -20.512       0       0       0 
NDDV1151 DDV110       0 0              0       0       0       0 
NDZW115B DZW110       0 0              0       0       0       0 
NDVTP 5B DVTP11       0 0              0       0       0       0 
NEHM1150 EHM110       0 0        -52.222       0       0       0 
NEMW115B EMW110       0 0        -14.762 -14.218       0       0 
NESDM 5B ESDM11       0 0              0       0       0       0 
NESDH 5B ESDH11       0 0              0       0       0       0 
NESDW 5B ESDW11       0 0        14.8443 -2.2937       0       0 
NESDV 5B ESDV11       0 0        18.0043 0.09969       0       0 
NGLTK 5B GLTK11       0 0        -41.570 1.09373       0       0 
NGO1105B GO110        0 0        6.52196 0.04640       0       0 
NGK1105B GK110        0 0        5.10900 11.7920       0       0 
NGNHU 5B GNHU11       0 0        5.41047 -5.6101       0       0 
NGNHK 5B GNHK11       0 0        31.8749 -4.1072       0       0 
NHBG115B HBG110       0 0              0       0       0       0 
NHCL115B HCL110       0 0              0 -67.702       0       0 
NHDB115B HDB110       0 0              0       0       0       0 
NHGLB 5B HGLB11       0 0              0       0       0       0 
NHGLO 5B HGLO11       0 0              0       0       0       0 
NHGLW 5B HGLW11       0 0              0       0       0       0 
NHGV115B HGV110       0 0              0       0       0       0 
NKP1105C KP110        0 0              0       0       0       0 
NKWD115B KWD110       0 0        16.0385 3.34010       0       0 
NLS1105B LS110        0 0              0       0       0       0 
NMAK115B MAK110       0 0              0       0       0       0 
NMEE115B MEE110       0 0              0       0 -49.600       0       0 -150.00 187.500 -187.50 
NMPL115B MP110        0 0              0       0       0       0 
NMSK115B MSKZ11       0 0              0       0       0       0 
NNVD115B NVD110       0 0              0       0       0       0 
NODZ115B ODZ110       0 0              0       0       0       0 
NOL1105B OL110        0 0              0       0       0       0 
NOMD115B OMD110       0 0              0       0       0       0 
NRT1105B RT110        0 0              0       0       0       0 
NRS1105B RS110        0 0              0       0       0       0 
NSKN115B SKN110       0 0              0       0       0       0 
NTBG115B TBG110       0 0        -0.0184 -2.4023       0       0 
NVDM115B VDM110       0 0              0       0       0       0 
NVO1105B VO110        0 0              0       0       0       0 
NVVL115B VVL110       0 0        1.62590 -2.6182       0       0 
NVLH115B VLH110       0 0              0       0       0       0 
NNOPV 5B NOPV11       0 0              0       0       0       0 
NVH1105B VH110        0 0              0       0       0       0 
NWS1105B WS110        0 0              0       0       0       0 
NWSMR 5B WSMR11       0 0              0       0       0       0 
NZYV115B ZYV110       0 0              0       0       0       0 
NZS1105B ZS110        0 0              0       0       0       0 
NZLF115B ZLF110       0 0              0       0       0       0 
NZLH115B ZLH110       0 0              0       0       0       0 
NZLW115B ZLW110       0 0              0       0       0       0 
NBSDL 3B BSDL15       0 0              0       0       0       0 
NBELF 3B BELF15       0 0        7.27520 1.80300       0       0 
NBOEK 3B BOEK15       0 0        -18.870 2.63726       0       0 
NBORN 3B BORN15       0 0        29.9100 7.21932       0       0 
NCLF153B CLF150       0 0        -11.410 -1.5785       0       0 
NGRTH 3B GRTH15       0 0        233.435 130.917       0       0 
NHELD 3B HELD15       0 0              0       0       0       0 
NHRST 3B HRST15       0 0        12.5295 3.69521       0       0 
NLIMM 3B LIMM15       0 0        62.5465 -3.3891       0       0 
NLUTT 3B LUTT15       0 0        14.9086 -2.3865       0       0 
NMRUM 3B MRUM15       0 0        12.1529 0.69373       0       0 
NTERW 3B TERW15       0 0              0       0       0       0 
NHTN153B HTN150       0 0              0       0       0       0 
NBOZ153B BOZ150       0 0        19.3960       0       0       0 
NBD1503B BD150        0 0        67.8467 -3.4880       0       0 
NERD153B ERD150       0 0        54.0771 18.5268       0       0 
NEHVN 3B EHVN15       0 0              0       0       0       0 
NEHVO 3B EHVO15       0 0              0       0       0       0 
NEHVW 3B EHVW15       0 0        48.0237 12.0577       0       0 
NEHVZ 3B EHVZ15       0 0        62.2709 12.8349       0       0 
NGT1503B GT150        0 0              0       0       0       0 
NHMO153B HMO150       0 0        29.9275 5.29921       0       0 
NHMZ153B HMZ150       0 0        31.2227       0       0       0 
NMZ1503B MZ150        0 0        0.52359 2.38524       0       0 
NMDK153B MDK150       0 0        -42.227 6.65601       0       0 
NWKCM 3A MDKW15       0 0              0       0       0       0 
NOSS153B OS150        0 0        53.2137       0       0       0 
NPCH153B PCH150       0 0        8.69901 -1.4882       0       0 
NRSD153B RSD150       0 0        11.0598 0.46722       0       0 
NTBN153B TBN150       0 0              0       0       0       0 
NTBW153B TBW150       0 0        12.9061 2.70838       0       0 
NTBZ1531 TBZ150       0 0              0       0       0       0 
NWDT153B WDT150       0 0              0       0       0       0 
NBSL153B BSL150       0 0        36.9000       0       0       0 
NMDB153B MDB150       0 0        -20.310 -1.4098       0       0 
NRLL153B RLL150       0 0        -63.320       0       0       0 
NTNZ153B TNZ150       0 0        17.0000 43.0751       0       0 
NVSG153B VSG150       0 0        6.39336 -1.8333       0       0 
NWDO153B WDO150       0 0              0       0       0       0 
NURM153B LUTT15       0 0              0       0       0       0 
NDOD381B DOD380       0 0              0       0       0       0 
NWEW222B WEW220       0 0        34.1600 10.1799       0       0 
NBSL381B BSL380       0 0              0       0       0       0 
NMEE381B MEE380       0 0              0       0       0       0 
NOTL1531 OTL150       0 0        0.35953 5.19126       0       0 
NVLN1535 VLN150       0 0              0       0       0       0 
NVHZ1531 VHZ150       0 0        35.9525 -47.199       0       0 
NWWD1531 WWD150       0 0              0       0       0       0 
NWYW153B WYW150       0 0              0       0       0       0 
NLTK1151 LTK110       0 0              0       0       0       0 
NGSP153B GSP150       0 0              0       0       0       0 
NWEW222D WEW220       0 0              0       0       0       0 
NBSL381D BSL380       0 0              0       0       0       0 
NMEE381D MEE380       0 0              0       0       0       0 
NDIM153B DIM150       0 0              0       0       0       0 
NWYW153D WYW150       0 0        0.07650 0.34401       0       0 
NGSP1534 GSP150       0 0              0       0       0       0 
NDIM153E DIM150       0 0              0       0       0       0 
NOTL153E OTL150       0 0              0       0       0       0 
NGSP1535 GSP150       0 0              0       0       0       0 
NDIM153G DIM150       0 0              0       0       0       0 
...